[General]
network = QNet
QNet.numNodes = 10

**.alpha = 0.7
**.updateInterval = 1s
**.costMetric = 1.0

**.trafficRate = exponential(1s)

**.mobility.maxX = 600
**.mobility.maxY = 400
**.mobility.speed = 15mps

sim-time-limit = 100s
