[General]
network = QNet
sim-time-limit = 10s
**.numNodes = 5
**.trafficRate = exponential(1s)
**.mobility.maxX = 1500
**.mobility.maxY = 1500
**.mobility.speed = 15mps
**.collector.csvFile = "test-output.csv"
